  Page 1                                    Fri Jun  9 17:02:11 2023

  ******************************************************************
  *                           E P A N E T                          *
  *                   Hydraulic and Water Quality                  *
  *                   Analysis for Pipe Networks                   *
  *                         Version 2.00.12                        *
  ******************************************************************
  
  Analysis begun Fri Jun  9 17:02:11 2023

  Analysis ended Fri Jun  9 17:02:11 2023
