  Page 1                                    Sat Jul 29 06:31:19 2023

  ******************************************************************
  *                           E P A N E T                          *
  *                   Hydraulic and Water Quality                  *
  *                   Analysis for Pipe Networks                   *
  *                         Version 2.2                            *
  ******************************************************************
  
   
      Input Data File ................... ./ex2-tk/EX2-tkmodify.inp
      Number of Junctions................ 1
      Number of Reservoirs............... 2
      Number of Tanks ................... 0
      Number of Pipes ................... 2
      Number of Pumps ................... 0
      Number of Valves .................. 0
      Headloss Formula .................. Darcy-Weisbach
      Nodal Demand Model ................ DDA
      Hydraulic Timestep ................ 1.00 hrs
      Hydraulic Accuracy ................ 0.001000
      Status Check Frequency ............ 2
      Maximum Trials Checked ............ 10
      Damping Limit Threshold ........... 0.000000
      Maximum Trials .................... 40
      Quality Analysis .................. None
      Specific Gravity .................. 1.00
      Relative Kinematic Viscosity ...... 1.00
      Relative Chemical Diffusivity ..... 1.00
      Demand Multiplier ................. 1.00
      Total Duration .................... 0.00 hrs
      Reporting Criteria:
         All Nodes
         All Links
   
  Analysis begun Sat Jul 29 06:31:19 2023

   
  Hydraulic Status:
  -----------------------------------------------------------------------
     0:00:00: Balanced after 5 trials
     0:00:00: Reservoir 1 is emptying
     0:00:00: Reservoir 3 is emptying
   
   
  Node Results:
  ----------------------------------------------
                     Demand      Head  Pressure
  Node                  cfs        ft       psi
  ----------------------------------------------
  2                  295.00     80.00      4.33
  1                  -10.01    100.00      0.00  Reservoir
  3                 -284.99     80.00      0.00  Reservoir
   
   
  Link Results:
  ----------------------------------------------
                       Flow  Velocity  Headloss
  Link                  cfs       fps   /1000ft
  ----------------------------------------------
  1                   10.01      3.63      1.89
  2                 -284.99      3.63      0.20
   
  Analysis ended Sat Jul 29 06:31:19 2023
