  Page 1                                    Sun Jul 30 16:25:01 2023

  ******************************************************************
  *                           E P A N E T                          *
  *                   Hydraulic and Water Quality                  *
  *                   Analysis for Pipe Networks                   *
  *                         Version 2.2                            *
  ******************************************************************
  
  Analysis begun Sun Jul 30 16:25:01 2023

  Analysis ended Sun Jul 30 16:25:01 2023
