  Page 1                                    Sat Jul 29 11:05:20 2023

  ******************************************************************
  *                           E P A N E T                          *
  *                   Hydraulic and Water Quality                  *
  *                   Analysis for Pipe Networks                   *
  *                         Version 2.2                            *
  ******************************************************************
  
  Analysis begun Sat Jul 29 11:05:20 2023

  Analysis ended Sat Jul 29 11:05:20 2023
