  Page 1                                    Fri Jun  9 18:45:45 2023

  ******************************************************************
  *                           E P A N E T                          *
  *                   Hydraulic and Water Quality                  *
  *                   Analysis for Pipe Networks                   *
  *                         Version 2.2                            *
  ******************************************************************
  
  Analysis begun Fri Jun  9 18:45:45 2023

  Analysis ended Fri Jun  9 18:48:06 2023
