  Page 1                                    Mon Jun 12 19:55:50 2023

  ******************************************************************
  *                           E P A N E T                          *
  *                   Hydraulic and Water Quality                  *
  *                   Analysis for Pipe Networks                   *
  *                         Version 2.2                            *
  ******************************************************************
  
  Analysis begun Mon Jun 12 19:55:50 2023

  Analysis ended Mon Jun 12 19:56:42 2023
