  Page 1                                    Tue Jun 13 00:02:17 2023

  ******************************************************************
  *                           E P A N E T                          *
  *                   Hydraulic and Water Quality                  *
  *                   Analysis for Pipe Networks                   *
  *                         Version 2.2                            *
  ******************************************************************
  
  Analysis begun Tue Jun 13 00:02:17 2023

  Analysis ended Tue Jun 13 00:02:17 2023
