  Page 1                                    Fri Jul 28 17:33:42 2023

  ******************************************************************
  *                           E P A N E T                          *
  *                   Hydraulic and Water Quality                  *
  *                   Analysis for Pipe Networks                   *
  *                         Version 2.2                            *
  ******************************************************************
  
  Analysis begun Fri Jul 28 17:33:43 2023

  Analysis ended Fri Jul 28 17:33:43 2023
