  Page 1                                    Mon Jun 12 22:14:04 2023

  ******************************************************************
  *                           E P A N E T                          *
  *                   Hydraulic and Water Quality                  *
  *                   Analysis for Pipe Networks                   *
  *                         Version 2.00.12                        *
  ******************************************************************
  
  Analysis begun Mon Jun 12 22:14:04 2023

  Analysis ended Mon Jun 12 22:14:05 2023
