  Page 1                                    Fri Aug  4 09:44:56 2023

  ******************************************************************
  *                           E P A N E T                          *
  *                   Hydraulic and Water Quality                  *
  *                   Analysis for Pipe Networks                   *
  *                         Version 2.2                            *
  ******************************************************************
  
   
      Input Data File ................... ./ex5-tk/EX5-tkmod.inp
      Number of Junctions................ 2
      Number of Reservoirs............... 2
      Number of Tanks ................... 0
      Number of Pipes ................... 2
      Number of Pumps ................... 1
      Number of Valves .................. 0
      Headloss Formula .................. Darcy-Weisbach
      Nodal Demand Model ................ DDA
      Hydraulic Timestep ................ 1.00 hrs
      Hydraulic Accuracy ................ 0.001000
      Status Check Frequency ............ 2
      Maximum Trials Checked ............ 10
      Damping Limit Threshold ........... 0.000000
      Maximum Trials .................... 40
      Quality Analysis .................. None
      Specific Gravity .................. 1.00
      Relative Kinematic Viscosity ...... 1.00
      Relative Chemical Diffusivity ..... 1.00
      Demand Multiplier ................. 1.00
      Total Duration .................... 0.00 hrs
      Reporting Criteria:
         All Nodes
         All Links
   
  Analysis begun Fri Aug  4 09:44:56 2023

   
  Hydraulic Status:
  -----------------------------------------------------------------------
     0:00:00: Balanced after 6 trials
     0:00:00: Reservoir 1 is emptying
     0:00:00: Reservoir 2 is filling
   
   
  Node Results:
  ----------------------------------------------
                     Demand      Head  Pressure
  Node                  L/s         m         m
  ----------------------------------------------
  3                    0.00      9.94      9.94
  4                    0.00     21.41     21.41
  1                   -8.01     10.00      0.00  Reservoir
  2                    8.01     20.00      0.00  Reservoir
   
   
  Link Results:
  ----------------------------------------------
                       Flow  Velocity  Headloss
  Link                  L/s       m/s    /1000m
  ----------------------------------------------
  1                    8.01      1.02     14.08
  2                    8.01      1.02     14.08
  3                    8.01      0.00    -11.46  Pump
   
  Analysis ended Fri Aug  4 09:44:56 2023
