  Page 1                                    Fri Aug  4 09:44:56 2023

  ******************************************************************
  *                           E P A N E T                          *
  *                   Hydraulic and Water Quality                  *
  *                   Analysis for Pipe Networks                   *
  *                         Version 2.2                            *
  ******************************************************************
  
  Analysis begun Fri Aug  4 09:44:56 2023

  Analysis ended Fri Aug  4 09:44:56 2023
